Results/PF_SnapMode/Switch_Close/VLN_Node_REPORT.Txt

LINE-GROUND and LINE-LINE VOLTAGES BY BUS & NODE

Bus       Node    VLN (kV)   Angle      pu     Base kV    Node-Node   VLL (kV)  Angle      pu

SOURCEBUS 1       6.3509 /_    0.0         1    11.000        1-2         11 /_   30.0         1
   -      2       6.3509 /_ -120.0         1    11.000        2-3         11 /_  -90.0         1
   -      3       6.3509 /_  120.0         1    11.000        3-1         11 /_  150.0         1
BUS1 .... 1       6.3506 /_    0.0   0.99996    11.000        1-2         11 /_   30.0   0.99996
   -      2       6.3506 /_ -120.0   0.99996    11.000        2-3         11 /_  -90.0   0.99996
   -      3       6.3506 /_  120.0   0.99996    11.000        3-1         11 /_  150.0   0.99996
BUS2 .... 1       6.3507 /_    0.0   0.99997    11.000        1-2         11 /_   30.0   0.99997
   -      2       6.3507 /_ -120.0   0.99997    11.000        2-3         11 /_  -90.0   0.99997
   -      3       6.3507 /_  120.0   0.99997    11.000        3-1         11 /_  150.0   0.99997
BUS3 .... 1      0.23048 /_  -30.2     0.998     0.400        1-2     0.3992 /_   -0.2     0.998
   -      2      0.23048 /_ -150.2     0.998     0.400        2-3     0.3992 /_ -120.2     0.998
   -      3      0.23048 /_   89.8     0.998     0.400        3-1     0.3992 /_  119.8     0.998
BUS4 .... 1      0.23048 /_  -30.2     0.998     0.400        1-2     0.3992 /_   -0.2     0.998
   -      2      0.23048 /_ -150.2     0.998     0.400        2-3     0.3992 /_ -120.2     0.998
   -      3      0.23048 /_   89.8     0.998     0.400        3-1     0.3992 /_  119.8     0.998
BUS5 .... 1      0.21166 /_  -30.5   0.91652     0.400        1-2    0.36661 /_   -0.5   0.91652
   -      2      0.21166 /_ -150.5   0.91652     0.400        2-3    0.36661 /_ -120.5   0.91652
   -      3      0.21166 /_   89.5   0.91652     0.400        3-1    0.36661 /_  119.5   0.91652
BUS6 .... 1      0.21168 /_  -30.5   0.91661     0.400        1-2    0.36664 /_   -0.5   0.91661
   -      2      0.21168 /_ -150.5   0.91661     0.400        2-3    0.36664 /_ -120.5   0.91661
   -      3      0.21168 /_   89.5   0.91661     0.400        3-1    0.36664 /_  119.5   0.91661
